packages/openpy-fx-tools-dss/openpy_fx_tools_dss-0.1.3.tar.gz/openpy_fx_tools_dss-0.1.3/openpy_fx_tools_dss/Examples/13Bus/xlsx_files/DSS_files_from_xlsx/RegControl_13BusIEEE.dss
New "RegControl.reg1" transformer=reg1 winding=2 vreg=122 band=2 ptratio=20 CTprim=700 R=3 X=9 tapwinding=2 RemotePTRatio=20 TapNum=9 
New "RegControl.reg2" transformer=reg2 winding=2 vreg=122 band=2 ptratio=20 CTprim=700 R=3 X=9 tapwinding=2 RemotePTRatio=20 TapNum=6 
New "RegControl.reg3" transformer=reg3 winding=2 vreg=122 band=2 ptratio=20 CTprim=700 R=3 X=9 tapwinding=2 RemotePTRatio=20 TapNum=9 
